*Heading
** Job name: Job-55555 Model name: Model
** Generated by: Abaqus/CAE 2023
*Preprint, echo=NO, model=NO, history=NO, contact=NO
**
** PARTS
**
*Part, name=GHS-New2
*End Part
**  
*Part, name=Shell
*Node
      1,  -23.9208965,   16.1432095,  0.200000003
      2,  -18.4038658,     22.22859,  0.200000003
      3,  -11.3958616,   26.5131454,  0.200000003
      4,  -3.46463299,   28.6497612,  0.200000003
      5,   4.74727964,   28.4653454,  0.200000003
      6,   12.5745955,   25.9748344,  0.200000003
      7,   19.3831921,   21.3799992,  0.200000003
      8,    24.621479,   15.0530815,  0.200000003
      9,   27.8650799,   7.50665426,  0.200000003
     10,   28.8512173, -0.647918224,  0.200000003
     11,         27.5,        -8.75,  0.200000003
     12,   23.9208965,  -16.1432095,  0.200000003
     13,   18.4038658,    -22.22859,  0.200000003
     14,   11.3958616,  -26.5131454,  0.200000003
     15,   3.46463299,  -28.6497612,  0.200000003
     16,  -4.74727964,  -28.4653454,  0.200000003
     17,  -12.5745955,  -25.9748344,  0.200000003
     18,  -19.3831921,  -21.3799992,  0.200000003
     19,   -24.621479,  -15.0530815,  0.200000003
     20,  -27.8650799,  -7.50665426,  0.200000003
** ... 24 like lines cut
*Element, type=S4R
 1, 22,  1, 23, 44
 2,  1,  2, 24, 23
 3,  2,  3, 25, 24
 4,  3,  4, 26, 25
 5,  4,  5, 27, 26
 6,  5,  6, 28, 27
 7,  6,  7, 29, 28
 8,  7,  8, 30, 29
 9,  8,  9, 31, 30
10,  9, 10, 32, 31
11, 10, 11, 33, 32
12, 11, 12, 34, 33
13, 12, 13, 35, 34
14, 13, 14, 36, 35
15, 14, 15, 37, 36
16, 15, 16, 38, 37
17, 16, 17, 39, 38
18, 17, 18, 40, 39
19, 18, 19, 41, 40
20, 19, 20, 42, 41
21, 20, 21, 43, 42
22, 21, 22, 44, 43
*Nset, nset=Set-1, generate
  1,  44,   1
*Elset, elset=Set-1, generate
  1,  22,   1
** Section: Section-2
*Shell Section, elset=Set-1, material=PLA
0.0254, 5
*End Part
**  
**
** ASSEMBLY
**
*Assembly, name=Assembly
**  
*Instance, name=GHS-New2-1, part=GHS-New2
*Node
      1,        -17.5,  -21.8245735,   21.4790916
      2,        -17.5,   -17.247324,   24.8751221
      3,        -17.5,   -17.247324,  -24.8751221
      4,        -17.5,  -21.8245735,  -21.4790916
      5,        -17.5,   1.10342646,   28.7948399
      6,        -17.5,   5.68075991,   27.8687534
      7,        -17.5,   5.68075991,  -27.8687534
      8,        -17.5,   1.10342646,  -28.7948399
      9,        -17.5,  -28.7113247,   12.0645437
     10,        -17.5,  -28.7113247,  -12.0645437
     11,        -17.5,  -31.3400002,           0.
     12,        -17.5,  -10.3605738,   27.8688068
     13,        -17.5,  -5.78332472,   28.7948513
     14,        -17.5,  -5.78332472,  -28.7948513
     15,        -17.5,  -10.3605738,  -27.8688068
     16,        -17.5,   12.5674267,    24.875061
     17,        -17.5,   17.1447601,   21.4789238
     18,        -17.5,   17.1447601,  -21.4789238
     19,        -17.5,   12.5674267,   -24.875061
     20,        -17.5,   24.0314274,  -12.0643225
** ... 33942 like lines cut
*Element, type=C3D10
    1,  1028,  5019,  3752,  1029,  5053,  5052,  5051,  5055,  5054,  5056
    2,  3576,  3153,  3591,  3575,  5059,  5058,  5057,  5061,  5060,  5062
    3,  5020,  3244,  3243,  1936,  5065,  5064,  5063,  5067,  5066,  5068
    4,  5020,  1860,  3387,  3703,  5071,  5070,  5069,  5073,  5072,  5074
    5,  5021,  3239,  1932,  3240,  5077,  5076,  5075,  5079,  5078,  5080
    6,  5021,  1865,  5022,  3383,  5083,  5082,  5081,  5085,  5084,  5086
    7,  5021,  3383,  3698,  3699,  5085,  5088,  5087,  5090,  5089,  5091
    8,  5021,  3383,  1864,  1865,  5085,  5093,  5092,  5083,  5084,  5094
    9,  3384,  3240,  3630,  5021,  5097,  5096,  5095,  5098,  5079,  5099
   10,  5021,  1864,  3383,  3384,  5092,  5093,  5085,  5098,  5100,  5101
   11,  3917,  2708,  5023,  2301,  5104,  5103,  5102,  5106,  5105,  5107
   12,  5023,  3918,  2707,  2708,  5110,  5109,  5108,  5103,  5111,  5112
   13,  5023,  2071,  2716,  2080,  5115,  5114,  5113,  5117,  5116,  5118
   14,  2071,  2716,  2301,  5023,  5114,  5120,  5119,  5115,  5113,  5107
   15,   408,   456,   169,  4275,  5123,  5122,  5121,  5125,  5124,  5126
   16,  2071,  2301,  2081,  5023,  5119,  5128,  5127,  5115,  5107,  5129
   17,  2301,  2708,  5023,  2716,  5105,  5103,  5107,  5120,  5130,  5113
   18,  5024,  2552,   215,  2162,  5133,  5132,  5131,  5135,  5134,  5136
   19,  2162,  5024,  2568,  1914,  5135,  5138,  5137,  5140,  5139,  5141
   20,  1898,  2568,   230,  5024,  5144,  5143,  5142,  5145,  5138,  5146
** ... 18941 like lines cut
*Nset, nset=Set-1, generate
     1,  33962,      1
*Elset, elset=Set-1, generate
     1,  18961,      1
*Nset, nset=Set-2, generate
     1,  33962,      1
*Elset, elset=Set-2, generate
     1,  18961,      1
*Nset, nset=Set-3, generate
     1,  33962,      1
*Elset, elset=Set-3, generate
     1,  18961,      1
** Section: section1
*Solid Section, elset=Set-2, material=Material-2
,
*End Instance
**  
*Instance, name=Part-2-1, part=Shell
15.0785057359923, -11.7054636361212, 1.93216197036282
15.0785057359923, -11.7054636361212, 1.93216197036282, 15.7922557960565, -11.9190612337662, 2.59919789740089, 202.244405164085
*End Instance
**  
*Nset, nset=Set-1, instance=GHS-New2-1
 92,
*Nset, nset=Set-6, instance=GHS-New2-1
    91,    92,  1203,  1204,  1205,  1206,  1207,  1208,  1209,  1210,  1211,  1212,  1213,  1214,  1215,  1216
  1217,  1218,  1219,  1220,  1221,  1222,  1223,  1224,  1225,  1226,  1227,  1228,  1229,  1242,  1243,  1244
  1245,  1246,  1247,  1248,  1249,  1250,  1251,  1252,  1253,  1254,  1255,  1256,  1257,  1258,  1259,  1260
  1261,  1262,  1263,  1264,  1265,  1266,  1267,  1268,  7821,  7977,  8137,  8570,  8678,  9714, 10101, 11091
 11095, 12566, 12862, 13223, 13373, 13500, 13668, 13711, 13876, 19515, 22387, 23423, 27386, 27414, 27485, 27555
 28166, 28207, 28590, 28596, 28687, 28972, 29091, 29452, 31056, 31068, 31326, 31328, 31461, 31476, 32084, 32092
 32126, 32140, 32155, 32158, 32162, 32195, 32888, 32892, 32898, 32907, 32918, 32920, 32923, 32937, 32939, 32948
*Elset, elset=Set-6, instance=GHS-New2-1
   790,   839,   894,  1052,  1090,  1417,  1577,  1890,  1892,  2399,  2544,  2650,  2705,  2752,  2842,  2868
  2941,  3792,  5352,  6480,  6491,  6857,  7193,  9059,  9078,  9118,  9159,  9510,  9553,  9655,  9684,  9946
  9955, 10037, 10257, 10316, 10318, 10575, 10600, 10610, 11885, 11890, 11914, 12263, 12264, 12270, 12436, 12437
 12462, 13074, 13076, 13417, 13427, 13441, 13447, 13456, 13468, 13482, 13528, 13547, 13549, 13553, 13568, 13573
 13587, 13594, 13605, 13612, 13614, 13616, 13626, 13642, 13654, 13685, 13704, 13708, 13714, 13715, 13735, 14625
 14626, 14631, 14633, 14641, 14647, 14658, 14659, 14667, 14669, 14690, 14692, 14693, 14697, 14702, 14704, 14724
 14726, 14734, 14737, 14742, 14747, 14749, 14750, 14765, 14790, 14806, 14829, 14853, 14856, 14872, 14913, 17807
*Nset, nset=Set-Back-Circle, instance=GHS-New2-1
    45,    46,    47,    48,    49,    50,    51,    52,    53,    54,    55,    56,    57,    58,    59,    60
    61,    62,    63,    64,    65,    66,    67,    68,    69,    70,    71,    72,    73,    74,    75,    76
    77,    78,    79,    80,    81,    82,    83,    84,    85,    86,    87,    88,    89,    90,    91,    92
   837,   838,   839,   840,   841,   842,   843,   844,   845,   846,   847,   848,   849,   850,   851,   852
   853,   854,   855,   856,   857,   858,   859,   860,   861,   862,   863,   864,   865,   866,   867,   868
   869,   870,   871,   872,   873,   874,   875,   876,   877,   878,   879,   880,   881,   882,   883,   884
   885,   886,   887,   888,   889,   890,   891,   892,   893,   894,   895,   896,   897,   898,   899,   900
   901,   902,   903,   904,   905,   906,   907,   908,   909,   910,   911,   912,   913,   914,   915,   916
   917,   918,   919,   920,   921,   922,   923,   924,   925,   926,   927,   928,   929,   930,   931,   932
   933,   934,   935,   936,   937,   938,   939,   940,   941,   942,   943,   944,   945,   946,   947,   948
   949,   950,   951,   952,   953,   954,   955,   956,   957,   958,   959,   960,   961,   962,   963,   964
   965,   966,   967,   968,   969,   970,   971,   972,   973,   974,   975,   976,   977,   978,   979,   980
   981,   982,   983,   984,   985,   986,   987,   988,   989,   990,   991,   992,   993,   994,   995,   996
   997,   998,   999,  1000,  1001,  1002,  1003,  1004,  1005,  1006,  1007,  1008,  1009,  1010,  1011,  1012
  1013,  1014,  1015,  1016,  1017,  1018,  1019,  1020,  1021,  1022,  1023,  1024,  1025,  1026,  1027,  1028
  1029,  1030,  1031,  1032,  1033,  1034,  1035,  1036,  1037,  1038,  1039,  1040,  1041,  1042,  1043,  1044
  1045,  1046,  1047,  1048,  1049,  1050,  1051,  1052,  1053,  1054,  1055,  1056,  1057,  1058,  1059,  1060
  1061,  1062,  1063,  1064,  1065,  1066,  1067,  1068,  1069,  1070,  1071,  1072,  1073,  1074,  1075,  1076
  1077,  1078,  1079,  1080,  1081,  1082,  1083,  1084,  1085,  1086,  1087,  1088,  1089,  1090,  1091,  1092
  1093,  1094,  1095,  1096,  1097,  1098,  1099,  1100,  1101,  1102,  1103,  1104,  1105,  1106,  1107,  1108
** ... 161 like lines cut
*Elset, elset=Set-Back-Circle, instance=GHS-New2-1
    54,   114,   180,   221,   249,   250,   270,   282,   361,   364,   372,   428,   431,   432,   446,   459
   475,   490,   499,   505,   523,   621,   659,   698,   701,   705,   708,   710,   715,   716,   752,   766
   790,   811,   825,   839,   850,   877,   893,   894,   911,   942,   947,   949,   953,  1038,  1051,  1052
  1054,  1056,  1064,  1090,  1094,  1096,  1137,  1143,  1268,  1296,  1309,  1313,  1320,  1322,  1334,  1336
  1347,  1362,  1379,  1382,  1417,  1420,  1444,  1469,  1571,  1577,  1602,  1633,  1650,  1681,  1752,  1756
  1759,  1766,  1774,  1778,  1785,  1790,  1794,  1798,  1804,  1808,  1822,  1843,  1890,  1892,  1896,  1917
  1933,  1942,  2029,  2033,  2044,  2046,  2092,  2097,  2107,  2117,  2131,  2154,  2233,  2252,  2254,  2266
  2399,  2417,  2436,  2452,  2454,  2461,  2511,  2541,  2544,  2553,  2606,  2618,  2650,  2653,  2662,  2682
  2698,  2701,  2703,  2705,  2722,  2748,  2752,  2800,  2836,  2842,  2843,  2866,  2868,  2874,  2877,  2881
  2883,  2941,  3002,  3083,  3176,  3258,  3262,  3304,  3359,  3382,  3389,  3402,  3431,  3471,  3506,  3650
  3678,  3710,  3712,  3756,  3778,  3792,  3823,  3829,  3983,  3987,  3993,  4010,  4184,  4270,  4273,  4298
  4330,  4334,  4440,  4526,  4603,  4635,  4642,  4716,  4764,  4767,  4782,  4814,  4826,  4850,  4894,  4992
  5058,  5061,  5100,  5222,  5249,  5307,  5311,  5318,  5319,  5339,  5346,  5352,  5379,  5398,  5416,  5458
  5463,  5483,  5493,  5527,  5528,  5530,  5536,  5547,  5550,  5572,  5581,  5583,  5596,  5610,  5611,  5623
  5625,  5637,  5640,  5649,  5654,  5659,  5666,  5707,  5729,  5797,  5798,  5802,  5816,  5826,  5863,  5891
  5894,  5905,  5921,  5922,  5940,  5947,  5998,  6045,  6093,  6164,  6295,  6338,  6432,  6450,  6480,  6491
  6495,  6509,  6534,  6543,  6559,  6561,  6590,  6591,  6607,  6630,  6670,  6699,  6742,  6746,  6752,  6786
  6807,  6833,  6857,  6911,  6917,  6951,  6958,  6959,  6989,  7020,  7041,  7054,  7063,  7069,  7073,  7125
  7190,  7193,  7198,  7219,  7237,  7245,  7247,  7248,  7254,  7293,  7307,  7350,  7395,  7398,  7426,  7433
  7450,  7461,  7466,  7506,  7510,  7526,  7537,  7562,  7581,  7667,  7705,  7757,  7759,  7775,  7805,  7835
** ... 60 like lines cut
*Nset, nset=Set-Houny-Comb, instance=GHS-New2-1
    60,    62,    93,    94,    95,    96,    97,    98,    99,   100,   101,   102,   103,   104,   105,   106
   107,   108,   109,   110,   111,   112,   113,   114,   115,   116,   117,   118,   119,   120,   121,   122
   123,   124,   125,   126,   127,   128,   129,   130,   131,   132,   133,   134,   135,   136,   137,   138
   139,   140,   141,   142,   143,   144,   145,   146,   147,   148,   149,   150,   151,   152,   153,   154
   155,   156,   157,   158,   165,   166,   167,   168,   169,   170,   171,   172,   173,   174,   175,   176
   177,   178,   179,   180,   181,   182,   183,   184,   185,   186,   187,   188,   189,   190,   191,   192
   193,   194,   195,   196,   197,   198,   199,   200,   201,   202,   203,   204,   205,   206,   207,   208
   209,   210,   211,   212,   213,   214,   215,   216,   217,   218,   219,   220,   221,   222,   223,   224
   225,   226,   227,   228,   229,   230,   231,   232,   233,   234,   235,   236,   237,   238,   239,   240
   241,   242,   243,   244,   245,   246,   247,   248,   249,   250,   251,   252,   253,   254,   261,   262
   263,   264,   265,   266,   267,   268,   269,   270,   271,   272,   273,   274,   275,   276,   277,   278
   279,   280,   281,   282,   283,   284,   285,   286,   287,   288,   289,   290,   291,   292,   293,   294
   295,   296,   297,   298,   299,   300,   301,   302,   303,   304,   305,   306,   307,   308,   309,   310
   311,   312,   313,   314,   315,   316,   317,   318,   319,   320,   321,   322,   323,   324,   325,   326
   327,   328,   329,   330,   331,   332,   333,   334,   335,   336,   337,   338,   339,   340,   341,   342
   343,   344,   357,   358,   359,   360,   361,   362,   363,   364,   365,   366,   367,   368,   369,   370
   371,   372,   373,   374,   375,   376,   377,   378,   379,   380,   381,   382,   383,   384,   385,   386
   387,   388,   389,   390,   391,   392,   393,   394,   395,   396,   397,   398,   399,   400,   401,   402
   403,   404,   405,   406,   407,   408,   409,   410,   411,   412,   413,   414,   415,   416,   423,   424
   425,   426,   427,   428,   429,   430,   431,   432,   433,   434,   435,   436,   437,   438,   439,   440
** ... 32 like lines cut
*Elset, elset=Set-Houny-Comb, instance=GHS-New2-1
    22,    27,   359,   363,   435,   437,   444,   778,  1048,  1054,  1058,  1061,  1077,  1088,  1089,  1092
  1095,  1100,  1107,  1182,  1201,  1208,  1269,  1272,  1350,  1412,  1415,  1422,  1468,  1581,  1584,  1586
  1589,  1590,  1672,  1750,  1789,  1820,  1826,  1830,  1891,  1894,  1899,  1901,  2016,  2022,  2026,  2035
  2039,  2040,  2043,  2052,  2054,  2056,  2063,  2158,  2162,  2165,  2228,  2230,  2236,  2240,  2313,  2391
  2395,  2396,  2425,  2508,  2515,  2521,  2522,  2529,  2532,  2609,  2610,  2644,  2652,  2707,  2708,  2753
  2757,  2758,  2774,  2841,  2878,  2879,  2882,  2893,  2912,  2972,  3046,  3145,  3358,  3365,  3374,  3377
  3380,  3384,  3387,  3397,  3399,  3405,  3413,  3415,  3502,  3533,  3534,  3540,  3620,  3624,  3674,  3720
  3723,  3724,  3732,  3739,  3939,  3941,  3945,  3952,  3958,  3963,  3970,  3972,  3974,  3978,  3980,  3989
  3991,  3992,  3998,  4001,  4002,  4081,  4089,  4095,  4099,  4225,  4226,  4232,  4284,  4289,  4303,  4304
  4494,  4510,  4512,  4513,  4519,  4520,  4521,  4528,  4529,  4530,  4535,  4537,  4542,  4547,  4553,  4556
  4559,  4560,  4562,  4563,  4564,  4625,  4632,  4638,  4641,  4713,  4715,  4721,  4792,  4793,  4799,  4805
  4811,  4825,  5034,  5043,  5056,  5068,  5077,  5094,  5164,  5226,  5235,  5302,  5305,  5308,  5309,  5325
  5326,  5384,  5397,  5471,  5490,  5492,  5501,  5502,  5515,  5526,  5529,  5533,  5576,  5638,  5640,  5646
  5834,  5953,  5958,  5960,  6118,  6166,  6171,  6172,  6229,  6257,  6259,  6263,  6275,  6434,  6457,  6468
  6478,  6490,  6503,  6505,  6510,  6530,  6536,  6547,  6550,  6566,  6568,  6569,  6571,  6583,  6592,  6593
  6596,  6597,  6600,  6605,  6624,  6693,  6702,  6712,  6718,  6731,  6754,  6766,  6803,  6934,  6942,  6964
  6992,  7014,  7086,  7089,  7223,  7225,  7226,  7229,  7244,  7285,  7386,  7408,  7436,  7447,  7467,  7561
  7568,  7577,  7586,  7595,  7603,  7610,  7618,  7624,  7627,  7636,  7656,  7666,  7667,  7678,  7687,  7688
  7770,  7772,  7776,  7780,  7789,  7792,  7801,  7912,  8049,  8084,  8089,  8091,  8104,  8109,  8125,  8169
  8232,  8256,  8270,  8282,  8289,  8308,  8315,  8327,  8339,  8352,  8375,  8402,  8407,  8439,  8440,  8458
** ... 30 like lines cut
*Nset, nset=Set-Node-1, instance=GHS-New2-1
 13821,
*Nset, nset=Set-Node-2, instance=GHS-New2-1
 28251,
*Elset, elset=_m_Surf-1_S2, internal, instance=GHS-New2-1
   790,   877,  1313,  1322,  1469,  1759,  2097,  2154,  2452,  2454,  2511,  2541,  2662,  2701,  2703,  2705
  3778,  3823,  4894,  5100,  6093,  9107,  9130, 10325, 10346, 11863, 11928, 11932, 11938, 11961, 12100, 12103
 12216, 12224, 12228, 12285, 12301, 12426, 12455, 12462, 12830, 12994, 13051, 13070, 13074, 13427, 13441, 13456
 13467, 13516, 13528, 13553, 13568, 13599, 13605, 13614, 13626, 13685, 13704, 13714, 13715, 14625, 14693, 14750
 14856, 16559, 18002, 18730, 18845
*Elset, elset=_m_Surf-1_S1, internal, instance=GHS-New2-1
   811,   825,  1051,  1309,  1933,  2092,  2107,  2117,  2131,  2682,  2698,  6432,  7073,  7193,  8592,  9033
  9065, 10308, 11873, 11887, 12096, 12294, 12432, 12437, 12561, 12723, 13468, 13615, 13684, 13735, 14631, 14659
 14673, 14704, 14724, 14726, 14742, 14749, 14765, 14790
*Elset, elset=_m_Surf-1_S4, internal, instance=GHS-New2-1
   850,   911,  1268,  1296,  1362,  1444,  1766,  1774,  1778,  1785,  1843,  2044,  2722,  3002,  3304,  3382
  3829,  4010,  5483,  5816,  9161,  9341,  9480,  9509,  9544,  9597, 10158, 10318, 10361, 10432, 12213, 12291
 12394, 12553, 12591, 12635, 12708, 12786, 12910, 12916, 12948, 12975, 13076, 13455, 13654, 14647, 14692, 14709
 14734, 15176, 15842, 17807, 17860, 17869, 18927
*Elset, elset=_m_Surf-1_S3, internal, instance=GHS-New2-1
   893,  1038,  1052,  1064,  1094,  1320,  1334,  1571,  1752,  1756,  1790,  1794,  1798,  1804,  1808,  1822
  1942,  2417,  2650,  2653,  2748,  2752,  2843,  3258,  3471,  3506,  3710,  3712,  3792,  4270,  4273,  4334
  4603,  4850,  6480,  6742,  9179,  9191,  9655,  9676,  9684, 10208, 10257, 10272, 10293, 10486, 11914, 11918
 12015, 12031, 12269, 12275, 12315, 12358, 12390, 12454, 12509, 12557, 12574, 12675, 12828, 12897, 12955, 12981
 13002, 13010, 13073, 13471, 13549, 13573, 13594, 13677, 14641, 14829, 14853, 15139, 15205, 16717, 17380, 18424
*Surface, type=ELEMENT, name=m_Surf-1
_m_Surf-1_S2, S2
_m_Surf-1_S1, S1
_m_Surf-1_S4, S4
_m_Surf-1_S3, S3
*Elset, elset=_s_Surf-1_S3, internal, instance=GHS-New2-1
   114,   221,   250,   361,   372,   428,   490,   499,   523,   705,   710,   715,   716,   766,   839,   894
   942,  1056,  1090,  1382,  1417,  1577,  1602,  1681,  1890,  2029,  2046,  2399,  2544,  2836,  2842,  2866
  2868,  2883,  2941,  3176,  3987,  4526,  4764,  5318,  5352,  5536,  5625,  5798,  5826,  5905,  5921,  5922
  5940,  5998,  6045,  6295,  6591,  6630,  6670,  6699,  6746,  6752,  6807,  6911,  6917,  6958,  6959,  7020
  7063,  7190,  7198,  7245,  7248,  7254,  7350,  7395,  7461,  7526,  7562,  7581,  7842,  8005,  8012,  8024
  8090,  8112,  8170,  8211,  8233,  8274,  8349,  8383,  8448,  8475,  8515,  8540,  8558,  8567,  8774,  8937
  8977,  9000,  9029,  9032,  9053,  9075,  9087,  9442,  9478,  9522,  9553,  9623,  9672,  9679,  9863,  9971
  9987, 10017, 10337, 10575, 10604, 10655, 11146, 11382, 11437, 11486, 11642, 11701, 11777, 11974, 12026, 12063
 12098, 12110, 12112, 12263, 12384, 12471, 12654, 12660, 12680, 12682, 12685, 12860, 13045, 13086, 13093, 13104
 13208, 13256, 13319, 13324, 13373, 13375, 13440, 13505, 13539, 13586, 13596, 13601, 13603, 13604, 13673, 13682
 13753, 13761, 13803, 13806, 13828, 13840, 13856, 13860, 13861, 13906, 13907, 13909, 13914, 13922, 13940, 13944
 13959, 13967, 13993, 13998, 14002, 14018, 14021, 14035, 14036, 14039, 14053, 14054, 14056, 14063, 14111, 14117
 14128, 14131, 14138, 14163, 14189, 14190, 14197, 14203, 14224, 14227, 14237, 14271, 14272, 14283, 14291, 14322
 14329, 14340, 14346, 14349, 14366, 14368, 14390, 14422, 14428, 14454, 14461, 14470, 14497, 14500, 14525, 14527
 14529, 14532, 14539, 14543, 14557, 14564, 14579, 14586, 14593, 14603, 14780, 14794, 14797, 14821, 14861, 14872
 14886, 14887, 14890, 14917, 14929, 14937, 15001, 15003, 15015, 15020, 15026, 15038, 15039, 15059, 15064, 15072
 15130, 15147, 15166, 15167, 15183, 15186, 15189, 15201, 15246, 15250, 15293, 15295, 15326, 15332, 15336, 15344
 15350, 15351, 15378, 15393, 15403, 15421, 15451, 15455, 15459, 15463, 15469, 15473, 15491, 15503, 15506, 15536
 15539, 15541, 15578, 15586, 15599, 15600, 15602, 15610, 15612, 15615, 15621, 15627, 15640, 15641, 15649, 15658
 15668, 15680, 15681, 15692, 15694, 15700, 15708, 15715, 15720, 15741, 15762, 15844, 15924, 15952, 16027, 16033
** ... 4 like lines cut
*Elset, elset=_s_Surf-1_S1, internal, instance=GHS-New2-1
   180,   249,   270,   475,  1137,  1336,  1420,  1896,  2266,  2800,  2877,  2881,  3262,  3359,  3389,  3983
  4635,  4642,  5061,  5249,  5307,  5346,  5547,  5707,  5947,  6338,  6509,  6534,  6561,  6857,  7433,  7537
  7705,  7835,  7841,  8041,  8313,  8420,  8850,  8875,  8886,  8905,  8964,  9077,  9132,  9159,  9163, 10037
 10600, 11272, 11695, 11769, 11797, 11885, 11934, 11954, 12225, 12264, 12270, 12436, 13049, 13222, 13225, 13231
 13263, 13299, 13301, 13347, 13431, 13437, 13482, 13498, 13547, 13587, 13589, 13612, 13616, 13642, 13650, 13658
 13708, 13727, 13892, 14029, 14084, 14344, 14370, 14401, 14437, 14456, 14486, 14491, 14510, 14515, 14561, 14594
 14607, 14626, 14653, 14658, 14667, 14669, 14697, 14739, 14806, 14913, 14922, 14924, 14987, 15092, 15531, 15563
 15603, 15619, 15634, 15645, 15672, 15946, 16056, 16501, 16611, 16987, 17247, 17702, 17712, 17717, 17972, 17993
 18218, 18276, 18317, 18504, 18780, 18855
*Elset, elset=_s_Surf-1_S4, internal, instance=GHS-New2-1
   364,   446,   459,   698,   752,   947,   949,  1096,  1143,  1347,  1379,  2033,  2436,  2461,  2553,  3402
  3756,  3993,  4440,  4767,  5058,  5222,  5311,  5493,  5729,  6491,  6786,  6989,  7219,  7247,  7775,  8004
  8304,  8358,  8557,  8862,  8897,  9059,  9078,  9118,  9210,  9465,  9510,  9532,  9547,  9925,  9946, 10269
 10316, 10588, 10610, 10616, 10649, 10994, 11170, 11738, 11757, 11907, 12095, 12254, 12351, 12453, 12542, 12776
 13160, 13202, 13250, 13321, 13447, 13552, 13676, 13725, 13796, 13829, 13847, 13850, 14047, 14068, 14096, 14100
 14106, 14312, 14448, 14459, 14464, 14503, 14524, 14537, 14581, 14597, 14612, 14876, 15046, 15094, 15119, 15163
 15177, 15231, 15232, 15262, 15276, 15289, 15346, 15437, 15490, 15547, 15553, 15557, 15573, 15601, 15607, 15666
 15705, 15794, 17305, 17378, 17433, 18528, 18946
*Elset, elset=_s_Surf-1_S2, internal, instance=GHS-New2-1
   282,   431,   432,   505,   621,   659,   701,   708,   953,  1650,  1892,  1917,  2252,  2606,  2874,  3083
  3650,  3678,  4184,  4298,  4330,  4716,  4782,  4814,  4826,  5379,  5398,  5458,  5530,  5596,  5654,  5797
  5802,  6164,  6450,  6495,  6607,  6951,  7054,  7237,  7450,  7805,  8551,  9050,  9536,  9936,  9955,  9960
 10517, 10789, 10859, 11708, 11789, 11861, 11890, 11904, 12430, 12623, 13017, 13117, 13245, 13357, 13417, 13469
 13510, 13535, 13541, 13703, 13821, 13894, 13913, 13917, 13969, 14009, 14081, 14122, 14126, 14133, 14135, 14145
 14160, 14171, 14178, 14202, 14215, 14228, 14249, 14255, 14315, 14354, 14406, 14423, 14427, 14438, 14443, 14444
 14492, 14506, 14580, 14633, 14656, 14689, 14690, 14702, 14737, 14747, 14755, 14781, 14791, 14834, 14842, 14846
 14867, 14882, 14892, 14927, 14932, 14943, 14956, 15008, 15058, 15078, 15101, 15136, 15162, 15224, 15258, 15282
 15284, 15330, 15372, 15394, 15419, 15425, 15457, 15470, 15502, 15519, 15527, 15528, 15571, 15682, 15710, 15914
 16025, 16064, 16067, 16176, 16708, 16839, 16913, 17073, 17301, 17744, 17847, 18013, 18756
*Surface, type=ELEMENT, name=s_Surf-1
_s_Surf-1_S3, S3
_s_Surf-1_S1, S1
_s_Surf-1_S4, S4
_s_Surf-1_S2, S2
** Constraint: Constraint-1
*Tie, name=Constraint-1, adjust=yes
s_Surf-1, m_Surf-1
*End Assembly
*Amplitude, name=STEPANISHEN_COX
             0.,         -0.5552,           0.002,         -0.5552,           0.004,         -0.5324,           0.006,         -0.5118
          0.008,          -0.494,            0.01,         -0.4612,           0.012,         -0.3709,           0.014,         -0.2707
          0.016,         -0.1904,           0.018,         -0.0651,            0.02,           0.088,           0.022,          0.1108
          0.024,          0.0736,           0.026,         -0.0311,           0.028,         -0.2107,            0.03,         -0.4379
          0.032,         -0.6851,           0.034,         -0.7869,           0.036,         -0.7866,           0.038,         -0.7713
           0.04,          -0.741,           0.042,         -0.7457,           0.044,         -0.8028,           0.046,         -0.8525
          0.048,         -0.8794,            0.05,         -0.9015,           0.052,         -0.8837,           0.054,         -0.8259
          0.056,         -0.7181,           0.058,         -0.4978,            0.06,         -0.2125,           0.062,          0.1106
          0.064,          0.1884,           0.066,          0.2562,           0.068,           0.279,            0.07,          0.2593
          0.072,          0.2022,           0.074,            0.13,           0.076,          0.1582,           0.078,          0.1135
           0.08,          0.0913,           0.082,          0.1042,           0.084,          0.0395,           0.086,         -0.1901
          0.088,         -0.2873,            0.09,         -0.2316,           0.092,         -0.0413,           0.094,          0.1315
          0.096,          0.2593,           0.098,          0.3222,             0.1,          0.3222,           0.102,          0.2695
          0.104,          0.2695,           0.106,          0.1315,           0.108,             -2.,            0.11,             -2.
          0.112,             -2.,           0.114,             -2.,           0.116,             -2.,           0.118,             -2.
           0.12,          0.2841,           0.122,          0.2695,           0.124,          0.3148,           0.126,          0.4002
          0.128,           0.548,            0.13,          0.6158,           0.132,           0.379,           0.134,           0.052
          0.136,         -0.3051,           0.138,         -0.4773,            0.14,         -0.5169,           0.142,         -0.4666
          0.144,         -0.3737,           0.146,          -0.343,           0.148,         -0.3877,            0.15,         -0.4223
          0.152,         -0.4395,           0.154,         -0.4691,           0.156,         -0.4288,           0.158,         -0.3534
** ... 294 like lines cut
** 
** MATERIALS
** 
*Material, name=Material-2
*Acoustic Medium
 2.07e+09,
*Density
1000.,
*Elastic
 2.2e+09, 0.43
*Material, name=PLA
*Density
7800.,
*Elastic
 2.068e+11, 0.3
** 
** BOUNDARY CONDITIONS
** 
** Name: BC-3 Type: Displacement/Rotation
*Boundary
Set-Node-1, 6, 6
** Name: BC-4 Type: Displacement/Rotation
*Boundary
Set-Node-1, 1, 1
** ----------------------------------------------------------------
** 
** STEP: Step-11
** 
*Step, name=Step-11, nlgeom=NO, perturbation
freq
*Frequency, eigensolver=Lanczos, sim, acoustic coupling=on, normalization=mass
200, 200., 3200., 200., , 
** 
** OUTPUT REQUESTS
** 
*Restart, write, frequency=0
** 
** FIELD OUTPUT: F-Output-2
** 
*Output, field
*Node Output
U, 
** 
** HISTORY OUTPUT: H-Output-2
** 
*Output, history
*Energy Output
ALLKE, ALLSE
*End Step
** ----------------------------------------------------------------
** 
** STEP: Step-1
** 
*Step, name=Step-1, nlgeom=NO, perturbation
*Steady State Dynamics, direct, frequency scale=LINEAR, friction damping=NO
200., 500., 93, 1.
** 
** OUTPUT REQUESTS
** 
*Output, field, frequency=0
*Output, history, frequency=0
*End Step
** ----------------------------------------------------------------
** 
** STEP: Step-2
** 
*Step, name=Step-2, nlgeom=NO, perturbation
*Steady State Dynamics, direct, frequency scale=LINEAR, friction damping=NO
500., 800., 120, 1.
** 
** OUTPUT REQUESTS
** 
*Output, field, frequency=0
*Output, history, frequency=0
*End Step
** ----------------------------------------------------------------
** 
** STEP: Step-3
** 
*Step, name=Step-3, nlgeom=NO, perturbation
*Steady State Dynamics, direct, frequency scale=LINEAR, friction damping=NO
800., 1100., 180, 1.
** 
** OUTPUT REQUESTS
** 
*Output, field, frequency=0
*Output, history, frequency=0
*End Step
** ----------------------------------------------------------------
** 
** STEP: Step-4
** 
*Step, name=Step-4, nlgeom=NO, perturbation
*Steady State Dynamics, direct, frequency scale=LINEAR, friction damping=NO
1100., 1400., 200, 1.
** 
** OUTPUT REQUESTS
** 
*Output, field, frequency=0
*Output, history, frequency=0
*End Step
** ----------------------------------------------------------------
** 
** STEP: Step-5
** 
*Step, name=Step-5, nlgeom=NO, perturbation
*Steady State Dynamics, direct, frequency scale=LINEAR, friction damping=NO
1400., 1700., 250, 1.
** 
** OUTPUT REQUESTS
** 
*Output, field, frequency=0
*Output, history, frequency=0
*End Step
** ----------------------------------------------------------------
** 
** STEP: Step-6
** 
*Step, name=Step-6, nlgeom=NO, perturbation
*Steady State Dynamics, direct, friction damping=NO
1700., 2000., 300, 1.
** 
** OUTPUT REQUESTS
** 
*Output, field, frequency=0
*Output, history, frequency=0
*End Step
** ----------------------------------------------------------------
** 
** STEP: Step-7
** 
*Step, name=Step-7, nlgeom=NO, perturbation
*Steady State Dynamics, direct, frequency scale=LINEAR, friction damping=NO
2000., 2300., 330, 1.
** 
** OUTPUT REQUESTS
** 
*Output, field, frequency=0
*Output, history, frequency=0
*End Step
** ----------------------------------------------------------------
** 
** STEP: Step-8
** 
*Step, name=Step-8, nlgeom=NO, perturbation
*Steady State Dynamics, direct, frequency scale=LINEAR, friction damping=NO
2300., 2600., 380, 1.
** 
** OUTPUT REQUESTS
** 
*Output, field, frequency=0
*Output, history, frequency=0
*End Step
** ----------------------------------------------------------------
** 
** STEP: Step-9
** 
*Step, name=Step-9, nlgeom=NO, perturbation
*Steady State Dynamics, direct, frequency scale=LINEAR, friction damping=NO
2600., 2900., 400, 1.
** 
** OUTPUT REQUESTS
** 
*Output, field, frequency=0
*Output, history, frequency=0
*End Step
** ----------------------------------------------------------------
** 
** STEP: Step-10
** 
*Step, name=Step-10, nlgeom=NO, perturbation
*Steady State Dynamics, direct, friction damping=NO
2600., 2900., 400, 1.
** 
** OUTPUT REQUESTS
** 
*Output, field, frequency=0
*Output, history, frequency=0
*End Step
